*Buffer

.include model.txt
VCC VCC 0 5
VINA INA 0 PULSE(0 5 0N 10N 10N 200N 500N)

RR1	INA BASE 10K
RR2	VCC OUT	1K
Q1 OUT BASE 0 NPN

.TRAN 10N	1200N

.END