*SIMPLE RTL INVERTER
.INCLUDE MODEL.txt
.DC	VIN	0	5	0.1
.TRAN	10N	600N

VCC	VCC	0	5
VIN	IN 0 PULSE(0	5	0N	10N 10N 250N 500N)
RB IN BASE 10K
Q1 OUT BASE 0 NPN
RC VCC OUT 1K
*XNOT IN1 OUTNOT INV

.SUBCKT INV IN OUT 
 VCC VCC 05
 RB IN BASE 10K 
 Q1 OUT BASE 0 NPN
 RC VCC OUT 1K 
 .ENDS INV
